STAAD SPACE
START JOB INFORMATION
ENGINEER DATE 29-Jul-24
END JOB INFORMATION
INPUT WIDTH 79
UNIT METER KN
JOINT COORDINATES
1000 2 2.38001 0; 1001 0 2.38001 0; 1002 2 2.38001 6.00001;
1003 0 2.38001 6.00001; 1004 2 2.38001 11; 1005 0 2.38001 11;
1006 2 2.38001 16; 1007 0 2.38001 16; 1008 2 2.38001 21; 1009 0 2.38001 21;
1010 2 2.38001 27; 1011 0 2.38001 27; 1012 2 3.18001 -1; 1013 2 4.10001 -1;
1014 2 5.30001 -1; 1015 2 6.50001 -1; 1016 2 7.85001 -1; 1017 2 8.60002 -1;
1018 0 2.86001 0; 1019 0 3.50001 0; 1020 0 4.10001 0; 1021 0 4.70001 0;
1022 0 5.30001 0; 1023 0 5.90001 0; 1024 0 6.50001 0; 1025 0 7.10001 0;
1026 0 7.85001 0; 1027 0 8.60002 0; 1028 0 9.30002 0; 1029 2 2.86001 0;
1030 2 3.18001 0; 1031 2 3.50001 0; 1032 2 4.10001 0; 1033 2 4.70001 0;
1034 2 5.30001 0; 1035 2 5.90001 0; 1036 2 6.50001 0; 1037 2 7.10001 0;
1038 2 7.85001 0; 1039 2 8.60002 0; 1040 2 9.30002 0; 1041 2 7.85001 0.950002;
1042 0 4.10001 1.5; 1043 0 6.50001 1.5; 1044 0 8.60002 1.5; 1045 0 9.30002 1.5;
1046 2 4.10001 1.5; 1047 2 6.50001 1.5; 1048 2 8.60002 1.5; 1049 2 9.30002 1.5;
1050 0 9.30002 2; 1051 0 5.30001 3.00001; 1052 0 7.85001 3.00001;
1053 0 8.60002 3.00001; 1054 0 9.30002 3.00001; 1055 2 5.30001 3.00001;
1056 2 7.85001 3.00001; 1057 2 8.60002 3.00001; 1058 2 9.30002 3.00001;
1059 2 6.50001 3.25; 1060 2 9.30002 4.00001; 1061 -0.22 4.10001 4.145;
1062 0 4.10001 4.145; 1063 2 4.10001 4.145; 1064 -0.22 9.30002 4.14501;
1065 0 9.30002 4.14501; 1066 2 9.30002 4.14501; 1067 0 4.10001 4.5;
1068 0 6.50001 4.5; 1069 2 4.10001 4.5; 1070 2 6.50001 4.5;
# ... 240 like lines cut
MEMBER INCIDENCES
1000 1001 1018; 1001 1000 1029; 1002 1003 1080; 1003 1002 1094; 1004 1005 1119;
1005 1004 1135; 1006 1007 1172; 1007 1006 1189; 1008 1009 1221; 1009 1008 1237;
1010 1011 1260; 1011 1010 1277; 1012 1064 1061; 1013 1075 1078; 1014 1149 1150;
1015 1157 1158; 1016 1207 1208; 1017 1215 1216; 1018 1062 1061; 1019 1065 1064;
1020 1076 1075; 1021 1079 1078; 1022 1151 1149; 1023 1152 1150; 1024 1159 1157;
1025 1160 1158; 1026 1209 1207; 1027 1210 1208; 1028 1217 1215; 1029 1218 1216;
1030 1018 1019; 1031 1019 1020; 1032 1020 1021; 1033 1021 1022; 1034 1022 1023;
1035 1023 1024; 1036 1024 1025; 1037 1025 1026; 1038 1026 1027; 1039 1027 1028;
1040 1001 1042; 1041 1020 1042; 1042 1022 1042; 1043 1022 1043; 1044 1024 1043;
1045 1026 1043; 1046 1027 1044; 1047 1028 1045; 1048 1022 4169; 1049 1026 1052;
1050 1045 1050; 1051 1042 1051; 1052 1043 1052; 1053 1044 1053; 1054 1050 1054;
1055 1042 1062; 1056 1043 1068; 1057 1054 1065; 1058 1051 1067; 1059 1052 1068;
1060 1053 1071; 1061 1062 1067; 1062 1051 4171; 1063 1052 1089; 1064 1065 1073;
1065 1067 1076; 1066 1003 1067; 1067 1067 1085; 1068 1068 1085; 1069 1068 1087;
1070 1068 1089; 1071 1071 1090; 1072 1073 1079; 1073 1076 1083; 1074 1079 1091;
1075 1080 1081; 1076 1081 1082; 1077 1082 1083; 1078 1083 1084; 1079 1084 1085;
1080 1085 1086; 1081 1086 1087; 1082 1087 1088; 1083 1088 1089; 1084 1089 1090;
1085 1090 1091; 1086 1090 1106; 1087 1091 1107; 1088 1085 1110; 1089 1106 1111;
1090 1107 1112; 1091 1083 4175; 1092 1087 1126; 1093 1089 1128; 1094 1111 1115;
1095 1112 1116; 1096 1110 4176; 1097 1115 1129; 1098 1116 1130; 1099 1119 1120;
# ... 156 like lines cut
START GROUP DEFINITION
MEMBER
_PORTICO 1000 TO 1011 1030 TO 1039 1075 TO 1085 1099 TO 1109 1124 TO 1134 -
1149 TO 1158 1171 TO 1173 1175 1177 TO 1180 1185 TO 1208 1221 TO 1226 1233 -
1234 TO 1237 1246 TO 1249 1258 TO 1261 1268 TO 1271 1274 TO 1290 -
1307 TO 1317 1354 TO 1363 1377 TO 1386 1403 TO 1412 1427 TO 1436 -
1449 TO 1451 1453 1455 TO 1458 4196 4204 4211 TO 4213 4216 4217 4222 4224 -
4225 TO 4226 4230 TO 4232 4235 TO 4237 4240 TO 4242 4244 TO 4246
_LLAVES-LONG 1041 1044 1048 1049 1055 1056 1061 TO 1063 1065 1069 1073 1088 -
1091 TO 1093 1096 1110 1113 1116 TO 1118 1121 1137 1140 TO 1142 1144 1147 -
1163 TO 1166 1318 1320 1323 1327 1328 1333 1334 1339 1341 TO 1343 1345 1349 -
1353 1364 1369 TO 1372 1387 1388 1391 1394 TO 1396 1399 1402 1415 -
1418 TO 1420 1422 1425 1441 TO 1444 4215 4218 TO 4221 4223 4227 TO 4229 -
4233 4234 4238 4239 4243 4248 4249 4254 4256 4264 4265 4270 4273 4278 4281 -
4283 4285
_TRINEO_2 1046 1047 1050 1053 1057 1060 1064 1071 1072 1074 1086 1087 1089 -
1090 1094 1095 1097 1098 1111 1112 1114 1115 1119 1120 1122 1123 1135 1136 -
1138 1139 1143 1145 1146 1148 1159 TO 1162 1167 TO 1170 1209 TO 1214 1216 -
1217 TO 1219 1227 TO 1232 1239 1240 1242 TO 1245 1250 TO 1252 1254 1255 1257 -
1262 TO 1267 1325 1326 1331 1332 1335 1338 1340 1344 1351 1352 1365 TO 1368 -
1373 TO 1376 1389 1390 1392 1393 1397 1398 1400 1401 1413 1414 1416 1417 -
1421 1423 1424 1426 1437 TO 1440 1445 TO 1448
_ARRIOST 1040 1042 1043 1045 1051 1052 1058 1059 1066 TO 1068 1070 1181 1319 -
1321 1322 1324 1329 1330 1336 1337 1346 TO 1348 1350 1459 1463 1465 TO 1467 -
4195 4203 4279
_COLS 2000 TO 2059
_PILS 3000 TO 3167
_CABEZALES 4000 TO 4011 4024 TO 4083
_WX 1000 TO 1173 1175 1177 TO 1208 1210 1211 1213 TO 1217 1219 TO 1451 1453 -
1455 TO 1472 4195 TO 4197 4199 TO 4205 4207 4208 4211 TO 4217 4220 TO 4246 -
4248 4249 4264 4265 4270 4273 4278 4285
_WZ 1000 TO 1173 1175 1177 TO 1208 1210 1211 1213 TO 1217 1219 TO 1451 1453 -
1455 TO 1472 4195 TO 4197 4199 TO 4205 4207 4208 4211 TO 4217 4220 TO 4246 -
4248 4249 4264 4265 4270 4273 4278 4285
_WX_H 2002 TO 2009 2012 TO 2019 2022 TO 2029 2032 TO 2039 2042 TO 2049 2052 -
2053 TO 2059
_WZ_H 2002 TO 2009 2012 TO 2019 2022 TO 2029 2032 TO 2039 2042 TO 2049 2052 -
2053 TO 2059
_VIGAS_FUND 4012 TO 4023
_PILS_1% 3000 TO 3017 3028 TO 3045 3056 TO 3073 3084 TO 3101 3112 TO 3129 -
3140 TO 3157
_PILS_2% 3018 TO 3027 3046 TO 3055 3074 TO 3083 3102 TO 3111 3130 TO 3139 -
3158 TO 3167
_ANCLAJES 1000 TO 1011
_DIAG_RETICULADO 1297 1299 1301 1303 1305
_VIGAS_LONG 1044 1046 1047 1050 1053 1054 1056 1057 1060 1064 1069 1071 1072 -
1074 1086 TO 1098 1110 TO 1123 1135 TO 1148 1159 TO 1170 1182 1183 1323 -
1325 1326 1331 TO 1333 1335 1338 TO 1340 1344 1349 1351 1352 1364 TO 1376 -
1387 TO 1402 1413 TO 1426 1437 TO 1448 1460 1461 4197 4199 4205 4207 4215 -
4220 4227 TO 4229 4233 4234 4238 4239 4243 4248 4249 4264 4265 4270 4273 -
4278 4285
_STUB_VIG_LONG 1041 1048 1049 1055 1061 TO 1063 1065 1073 1318 1320 1327 -
1328 1334 1341 TO 1343 1345 1353 4221 4223
_UNION_VOLADIZO 1182 1183 1460 1461 1464 1468 4197 4199 4205 4207
_SUB_BANDEJAS 1012 TO 1017
_ELEM_SUELTO 1012 TO 1017 1019 1021 1023 1025 1027 1029 1040 1042 1043 1045 -
1051 1052 1058 1059 1066 TO 1068 1070 1181 1215 1220 1238 1241 1253 1256 -
1319 1321 1322 1324 1329 1330 1336 1337 1346 TO 1348 1350 1459 1463 1467 -
4195 4203
_MENSULAS 1296 1298 1300 1302 1304 1306
_VT-BANDEJAS 1210 1211 1213 1214 1216 1217 1219 1227 TO 1232 1239 1240 1242 -
1243 TO 1245 1250 TO 1252 1254 1255 1257 1262 TO 1267
_VL_BANDEJAS 1046 1047 1050 1053 1054 1057 1060 1064 1071 1072 1074 1086 -
1087 1089 1090 1094 1095 1097 1098 1111 1112 1114 1115 1119 1120 1122 1123 -
1135 1136 1138 1139 1143 1145 1146 1148 1159 TO 1162 1167 TO 1170 1325 1326 -
1331 1332 1335 1338 1340 1344 1351 1352 1365 TO 1368 1373 TO 1376 1389 1390 -
1392 1393 1397 1398 1400 1401 1413 1414 1416 1417 1421 1423 1424 1426 1437 -
1438 TO 1440 1445 TO 1448
_ARRIOST_HORIZ 1465 1466
_L76X76X7.9 1209 1212 1218 4247 4250 4251 4255 4257 TO 4262 4266 TO 4269 -
4271 4272 4274 4275 4280 4282 4284
_00-NUEVO 4247 4250 4251 4253 TO 4263 4266 TO 4269 4271 4272 4274 TO 4276 4281
FLOOR
_PISO-BANDEJAS 1046 1053 1060 1071 1086 1089 1094 1097 1112 1115 1120 1123 -
1135 1138 1143 1146 1159 1161 1167 1169 1182 1207 1210 1213 1217 1225 1227 -
1229 1231 1236 1240 1243 1245 1248 1250 1252 1255 1260 1262 1264 1266 1270 -
1272 1325 1331 1338 1351 1365 1367 1373 1375 1390 1393 1398 1401 1413 1416 -
1421 1424 1437 1439 1445 1447 1460 4197 4201 4205 4214
_PISO_BANDEJAS_2 1047 1050 1054 1057 1064 1072 1074 1087 1090 1095 1098 1111 -
1114 1119 1122 1136 1139 1145 1148 1160 1162 1168 1170 1183 1208 1211 1214 -
1216 1219 1226 1228 1230 1232 1237 1239 1242 1244 1249 1251 1254 1257 1261 -
1263 1265 1267 1271 1273 1326 1332 1335 1340 1344 1352 1366 1368 1374 1376 -
1389 1392 1397 1400 1414 1417 1423 1426 1438 1440 1446 1448 1461 4199 4202 -
4207
_BALCON 1182 TO 1184 1272 1273 1460 TO 1462 1464 1468 TO 1472 4197 -
4199 TO 4202 4205 4207 4208 4214
JOINT
_STRESS_S19 1022 1041 1144 1149 1150 1243 1244 1265
_STRESS_S05 1039 1048 1070 1084 1133 1142 1143 1241
_STRESS_S07 1013 1061 1064 1075 1145 1172 1184 1245
_CABEZA_PILOTES 4002 4010 4025 4033 4038 4046 4051 4059 4064 4072 4077 4085
_PUNTA 3000 3001 3028 3029 3056 3057 3084 3085 3112 3113 3140 3141
_00-RIGIDO 4164 4165 4167 4174 TO 4176 4179 TO 4181
END GROUP DEFINITION
DEFINE MATERIAL START
ISOTROPIC STEEL_36_KSI
E 1.99947e+08
POISSON 0.3
DENSITY 76.8191
ALPHA 6.5e-06
DAMP 0.03
G 7.7221e+07
TYPE STEEL
STRENGTH FY 235000 FU 360000 RY 1.5 RT 1.2
ISOTROPIC STEEL
E 1.99947e+08
POISSON 0.3
DENSITY 76.8191
ALPHA 6.5e-06
DAMP 0.03
G 7.7221e+07
TYPE STEEL
STRENGTH FY 235000 FU 360000 RY 1.5 RT 1.2
ISOTROPIC MATERIAL1
E 2.57e+07
POISSON 0.17
DENSITY 24
ISOTROPIC CONCRETE
E 2.17185e+07
POISSON 0.17
DENSITY 23.5616
ALPHA 1e-05
DAMP 0.05
TYPE CONCRETE
STRENGTH FCU 27579
ISOTROPIC CONCRETE-S-P
E 2.17185e+07
POISSON 0.17
DENSITY 0.001
ALPHA 1e-05
DAMP 0.05
G 9.28141e+06
TYPE CONCRETE
STRENGTH FCU 27579
ISOTROPIC CONCRETE-FIS
E 1.5e+07
POISSON 0.17
DENSITY 23.5616
ALPHA 1e-05
DAMP 0.05
G 9.28139e+06
TYPE CONCRETE
STRENGTH FCU 27579
ISOTROPIC CONCRETE-P
E 2.17185e+07
POISSON 0.17
DENSITY 15
ALPHA 1e-05
DAMP 0.05
TYPE CONCRETE
STRENGTH FCU 27579
ISOTROPIC CONCRETE_RIG
E 1e+20
POISSON 0.17
DENSITY 0
ALPHA 1e-05
DAMP 0.05
G 1e+20
TYPE CONCRETE
STRENGTH FCU 27579
END DEFINE MATERIAL
CONSTANTS
BETA 90 MEMB 1296 1298 1300 1302 1304 1306
MATERIAL STEEL MEMB 1000 TO 1173 1175 1177 TO 1451 1453 1455 TO 1472 4195 -
4196 TO 4197 4199 TO 4205 4207 4208 4211 TO 4285
MATERIAL CONCRETE MEMB 2000 TO 2059 3000 TO 3167 4000 TO 4083 4183 TO 4194
MEMBER PROPERTY AMERICAN
1000 1001 1004 TO 1007 1030 TO 1039 1099 TO 1109 1124 TO 1134 1185 TO 1195 -
1197 TO 1208 1221 TO 1226 1233 TO 1237 1246 TO 1249 1258 TO 1261 -
1268 TO 1271 1274 TO 1290 1307 TO 1317 1377 TO 1386 1403 TO 1412 1464 1468 -
1469 TO 1472 4213 4216 4217 4222 4224 TO 4226 4230 TO 4232 4235 TO 4237 4240 -
4241 TO 4242 4244 TO 4246 4252 4253 4263 4276 4277 TABLE ST W8X24
MEMBER PROPERTY AMERICAN
1012 TO 1029 1041 1044 1046 TO 1050 1053 TO 1057 1060 TO 1065 1069 -
1071 TO 1074 1086 TO 1098 1110 TO 1123 1135 TO 1148 1159 TO 1170 -
1182 TO 1184 1210 1211 1213 TO 1217 1219 1220 1227 TO 1232 1238 TO 1245 -
1250 TO 1257 1262 TO 1267 1272 1273 1291 TO 1296 1298 1300 1302 1304 1306 -
1318 1320 1323 1325 TO 1328 1331 TO 1335 1338 TO 1345 1349 1351 TO 1353 -
1364 TO 1376 1387 TO 1402 1413 TO 1426 1437 TO 1448 1460 TO 1462 4197 4199 -
4200 TO 4202 4205 4207 4208 4214 4215 4218 TO 4221 4223 4227 TO 4229 4233 -
4234 4238 4239 4243 4248 4249 4254 4256 4264 4265 4270 4273 4278 4281 4283 -
4285 TABLE ST W6X15
1040 1042 1043 1045 1051 1052 1058 1059 1066 TO 1068 1070 1181 1319 1321 -
1322 1324 1329 1330 1336 1337 1346 TO 1348 1350 1459 1463 1465 TO 1467 4195 -
4203 4279 TABLE SD L25254 SP 0.01
MEMBER PROPERTY
2000 2001 2010 2011 2020 2021 2030 2031 2040 2041 2050 2051 4183 TO 4193 -
4194 PRIS YD 0.5 ZD 0.5
4000 TO 4011 4024 TO 4083 PRIS YD 1 ZD 1.1
MEMBER PROPERTY AMERICAN
2002 TO 2009 2012 TO 2019 2022 TO 2029 2032 TO 2039 2042 TO 2049 -
2052 TO 2059 PRIS YD 0.5 ZD 0.5
MEMBER PROPERTY
4012 TO 4023 PRIS YD 0.6 ZD 0.4
MEMBER PROPERTY AMERICAN
1297 1299 1301 1303 1305 TABLE ST L25254
1209 1212 1218 4247 4250 4251 4255 4257 TO 4262 4266 TO 4269 4271 4272 4274 -
4275 4280 4282 4284 TABLE ST L30305
3000 PRIS YD 0.6
3001 PRIS YD 0.6
3002 PRIS YD 0.6
3003 PRIS YD 0.6
3004 PRIS YD 0.6
3005 PRIS YD 0.6
3006 PRIS YD 0.6
3007 PRIS YD 0.6
3008 PRIS YD 0.6
3009 PRIS YD 0.6
3010 PRIS YD 0.6
3011 PRIS YD 0.6
3012 PRIS YD 0.6
3013 PRIS YD 0.6
3014 PRIS YD 0.6
3015 PRIS YD 0.6
3016 PRIS YD 0.6
3017 PRIS YD 0.6
3018 PRIS YD 0.6
3019 PRIS YD 0.6
# ... 148 like lines cut
1002 1003 1008 TO 1011 1075 TO 1085 1149 TO 1158 1171 TO 1173 1175 -
1177 TO 1180 1196 1354 TO 1363 1427 TO 1436 1449 TO 1451 1453 1455 TO 1458 -
4196 4204 4211 4212 TABLE ST W8X24
SUPPORTS
3026 3027 3054 3055 3082 3083 3110 3111 3138 3139 3166 -
3167 FIXED BUT FY MX MY MZ KFX 6000 KFZ 6800
3024 3025 3052 3053 3080 3081 3108 3109 3136 3137 3164 -
3165 FIXED BUT FY MX MY MZ KFX 7500 KFZ 8500
3022 3023 3050 3051 3078 3079 3106 3107 3134 3135 3162 -
3163 FIXED BUT FY MX MY MZ KFX 9000 KFZ 10200
3020 3021 3048 3049 3076 3077 3104 3105 3132 3133 3160 -
3161 FIXED BUT FY MX MY MZ KFX 10500 KFZ 11900
3018 3019 3046 3047 3074 3075 3102 3103 3130 3131 3158 -
3159 FIXED BUT FY MX MY MZ KFX 12000 KFZ 13600
3016 3017 3044 3045 3072 3073 3100 3101 3128 3129 3156 -
3157 FIXED BUT FY MX MY MZ KFX 13500 KFZ 15300
3014 3015 3042 3043 3070 3071 3098 3099 3126 3127 3154 -
3155 FIXED BUT FY MX MY MZ KFX 15000 KFZ 17000
3012 3013 3040 3041 3068 3069 3096 3097 3124 3125 3152 -
3153 FIXED BUT FY MX MY MZ KFX 16500 KFZ 18700
3010 3011 3038 3039 3066 3067 3094 3095 3122 3123 3150 -
3151 FIXED BUT FY MX MY MZ KFX 18000 KFZ 20400
3008 3009 3036 3037 3064 3065 3092 3093 3120 3121 3148 -
3149 FIXED BUT FY MX MY MZ KFX 19500 KFZ 22100
3006 3007 3034 3035 3062 3063 3090 3091 3118 3119 3146 -
3147 FIXED BUT FY MX MY MZ KFX 21000 KFZ 23800
3004 3005 3032 3033 3060 3061 3088 3089 3116 3117 3144 -
3145 FIXED BUT FY MX MY MZ KFX 22500 KFZ 25500
3002 3003 3030 3031 3058 3059 3086 3087 3114 3115 3142 -
3143 FIXED BUT FY MX MY MZ KFX 24000 KFZ 27200
3000 3001 3028 3029 3056 3057 3084 3085 3112 3113 3140 -
3141 FIXED BUT MX MY MZ KFX 25500 KFY 26000 KFZ 28900
MEMBER RELEASE
1012 TO 1017 1040 TO 1049 1051 1052 1058 1059 1066 TO 1068 1070 1086 TO 1088 -
1091 TO 1093 1110 TO 1112 1116 TO 1118 1135 TO 1137 1140 TO 1142 1159 1160 -
1163 TO 1166 1181 TO 1183 1209 TO 1220 1227 TO 1232 1238 TO 1245 -
1250 TO 1257 1262 TO 1267 1297 1299 1301 1303 1305 1318 TO 1327 1329 1330 -
1336 1337 1346 TO 1348 1350 1364 TO 1366 1369 TO 1371 1387 TO 1390 1395 -
1413 TO 1415 1418 TO 1420 1437 1438 1441 TO 1444 1459 TO 1461 1463 TO 1468 -
4195 4197 4199 4203 4205 4207 4254 START MY MZ
1012 TO 1017 1040 1042 1043 1045 1051 1052 1058 1059 1063 1066 1068 TO 1071 -
1073 1074 1092 1093 1097 1098 1117 1118 1123 1140 TO 1142 1146 TO 1148 1164 -
1165 TO 1166 1169 1170 1181 1209 TO 1220 1227 TO 1232 1238 TO 1245 -
1250 TO 1257 1262 TO 1267 1297 1299 1301 1303 1305 1319 1321 1322 1324 1329 -
1330 1336 1337 1342 1343 1346 1348 TO 1353 1370 1371 1375 1376 1395 1401 -
1402 1418 TO 1420 1424 TO 1426 1442 TO 1444 1447 1448 1459 1463 -
1465 TO 1467 4195 4203 4223 4227 TO 4229 4239 4243 4256 4265 4273 4278 -
4285 END MY MZ
1000 TO 1011 START MY
4218 START MY MZ
4283 END MY MZ
4234 END MY MZ
MEMBER CRACKED
2000 TO 2059 REDUCTION RIY 0.7 RIZ 0.7
MEMBER TRUSS 
4247 4250 4251 4255 4257 TO 4263 4266 TO 4269 4271 4272 4274 4275 4279 4280 -
4282 4284
DEFINE WIND LOAD
TYPE 1 WIND 1
INT 1.33 1.33 1.33 1.33 1.33 1.33 1.39 1.43 1.47 1.51 1.54 1.57 1.6 1.63 -
1.66 1.68 1.7 1.72 1.75 1.77 1.78 1.8 1.82 1.84 1.85 1.87 1.89 1.9 1.92 1.93 -
1.94 HEIG 0 1 2 3 4 5 6 7 8 9 10 11 12 13 14 15 16 17 18 19 20 21 22 23 24 -
25 26 27 28 29 30
LOAD 13 LOADTYPE None  TITLE PESO PROPIO (DS)
*PESO SUELO
MEMBER LOAD
4000 TO 4011 4024 TO 4083 UNI GY -7.32
4012 TO 4023 UNI GY -2.88
*PESO PROPIO ESTRUCTURA METALICA
SELFWEIGHT Y -1.1 LIST 1000 TO 1173 1175 1177 TO 1451 1453 1455 TO 1472 4195 -
4196 TO 4197 4199 TO 4205 4207 4208 4211 TO 4279 4281 4283 4285
*PESO PROPIO ESTRUCTURA DE HORMIGON
SELFWEIGHT Y -1 LIST 2000 TO 2059 3000 TO 3167 4000 TO 4083 4183 TO 4194
LOAD 14 LOADTYPE None  TITLE CANERIAS EN OPERACION (DO)
*SISTEMA 05
JOINT LOAD
1041 FX 1.81 FY -8.03 FZ 1.58
1092 FX 1.88 FY -6.3 FZ 10.94
1131 FX 0.57
1147 FY -6.29
1171 FX 0.97 FY -6.15 FZ 1.57
1184 FX 4.73
1232 FX 0.06 FY -6.9 FZ 2.07
1271 FX 11.84 FY -3.1 FZ 11.92
*SISTEMA 07
JOINT LOAD
1059 FX 1.96 FY -7.04 FZ 0.79
1093 FY -1.16 FZ 17.36
1134 FX 1.29 FY -2.54 FZ 0.77
1148 FX 1.63 FY -5.56 FZ 0.34
1170 FX 0.72 FY -5.36 FZ 1.44
1187 FX 6.93 FY -1.81 FZ 0.55
1235 FX 0.01 FY -4.71 FZ 1.41
1274 FX 22.57 FY -7.37 FZ 16.15
1110 FX 2.18 FY -1 FZ 0.29
* SISTEMA 17
1261 1278 FX 0.11 FY -0.67 FZ 0.15
4162 FX 0.04 FY -0.45 FZ 0.05
4162 FX 0.1 FY 0.39 FZ 0.02
4162 FX 0.07 FY -0.17 FZ 0
4163 FX 0.08 FY -0.33 FZ 0.04
4163 FX 0.11 FY -0.5 FZ 0.08
4163 FX 0.08 FY -0.62 FZ 0.15
4164 FX 7.57 FY 3.41 FZ 0.83
4164 FX 0.33 FY 1.05 FZ 0.01
4164 FX 0.2 FY -0.76 FZ 0.14
4167 FX 0.24 FY -0.84 FZ 4.12
4168 FX 0.15 FY -0.74 FZ 0.15
4165 FX 0.03 FY -0.11 FZ 5.63
*SISTEMA 18
4170 FX 0.35 FY 0.16 FZ 13.11
4169 FX 0.04 FY -0.31 FZ 0.45
4171 FX 0.04 FY -0.75 FZ 1.42
4173 FX 0.05 FY -0.59 FZ 0.18
4172 FX 0.03 FY -0.2 FZ 0.05
4174 FX 0.78 FY -1.42 FZ 13.52
4176 FX 8.13 FY -4.45 FZ 0.3
4175 FX 5.44 FY -4.23 FZ 4.65
4177 FX 0.13 FY -0.97 FZ 0.58
4178 FX 0.01 FY -0.56 FZ 0.17
1132 FX 0.18 FY -0.65 FZ 13.3
4180 FX 0.04 FY 1.01 FZ 13.39
4179 FX 0.6 FY -0.01 FZ 2.99
4181 FX 3.37 FY -0.37 FZ 0.11
4182 FX 0.05 FY -0.8 FZ 0.1
4183 FX 0.1 FY -0.98 FZ 0.24
4184 FX 0.02 FY -0.14 FZ 0.04
1188 FX 0.05 FY -0.55 FZ 0.16
1185 FX 0.12 FY -0.54 FZ 0.14
1185 FX 0.06 FY -0.6 FZ 0.18
# ... 23 like lines cut
*SISTEMA 19
JOINT LOAD
1105 FY -0.47
1133 FX 0.02 FY -0.38 FZ 0.11
1186 FX 0.01 FY -0.36 FZ 0.11
1234 FY -0.41 FZ 0.13
1273 FY -0.44 FZ 0.14
1275 FX 0.08 FY -0.61 FZ 0.17
1188 FX 0.08 FY -0.61 FZ 0.17
1236 FX 0.01 FY -0.7 FZ 0.03
1276 FY -0.78 FZ 0.24
MEMBER LOAD
1202 TO 1205 4222 UNI GY -3
1221 1222 1258 1259 4216 4240 UNI GY -5.5
1233 1234 1246 1247 4244 UNI GY -5
1268 1269 4217 4245 UNI GY -6
1163 1164 1441 1442 4215 4220 4248 4249 4278 4285 UNI GY -0.32
1088 1091 1096 1137 1147 1364 1369 1372 1394 1399 1415 1418 1425 4227 4228 -
4238 4239 4243 4264 4265 4270 4273 UNI GY -0.38
1144 1422 UNI GY -0.38 0 0.369001
1144 1422 UNI GY -0.38 0.869001 1.299
1144 1422 UNI GY -0.38 0.369001 0.869001
1113 1391 UNI GY -0.38 0 0.385999
1110 1388 UNI GY -0.38 0.5 0.914001
1110 1388 UNI GY -0.38 0 0.5
4229 UNI GY -0.38 3.7 4.3
4229 UNI GY -0.38 0 3.7
1116 UNI GY -0.38 0 0.700001
4233 UNI GY -0.38 0 0.999998
1121 UNI GY -0.38 0 1.229
1113 1391 UNI GY -0.38 0.385999 1.257
4234 UNI GY -0.38 0 0.140005
4233 UNI GY -0.38 0.999998 1.45999
1140 UNI GY -0.38 3.3 5
1140 UNI GY -0.38 0 3.3
JOINT LOAD
1082 1121 FY -8
MEMBER LOAD
1192 1196 1223 1224 1276 1281 1289 4224 TO 4226 4241 4242 UNI GY -2.75
1190 1191 1195 1235 1274 1275 1279 1280 1288 4230 TO 4232 4235 TO 4236 -
4237 UNI GY -2.5
1193 1194 1277 1278 1282 1290 4213 4246 UNI GY -3
4201 4202 4214 UNI GY -2
LOAD 15 LOADTYPE None  TITLE CANERIAS VACIAS (DE)
*SISTEMA 05
JOINT LOAD
1041 FX 0.69 FY -5.25 FZ 0.1
1092 FX 0.11 FY -4.58 FZ 0.07
1131 FX 0.07 FY -0.51 FZ 0.05
1147 FY -5.14
1171 FX 0.79 FY -5.35 FZ 0.3
1184 FX 0.84 FY -0.2 FZ 0.06
1232 FX 0.02 FY -4.83 FZ 0.3
1271 FX 0.04 FY -2.67 FZ 0.74
*SISTEMA 07
JOINT LOAD
1059 FX 1.11 FY -3.86 FZ 0.32
1093 FY -3.59
1134 FX 0.02 FY -0.62 FZ 0.19
1148 FX 0.02 FY -5.42 FZ 0.09
1170 FX 0.01 FY -4.89 FZ 0.04
1187 FX 0.02 FY -0.85 FZ 0.03
1235 FX 0.04 FY -4.63 FZ 0.03
1274 FX 0.11 FY -4.62 FZ 0.05
* SISTEMA 17
1261 1278 FX 0.03 FY -0.61 FZ 0.02
4162 FX 0.06 FY -0.42 FZ 0
4162 FX 0.01 FY -0.12 FZ 0.01
4162 FX 0.13 FY -0.43 FZ 0
4163 FX 0.05 FY -0.24 FZ 0.01
4163 FX 0.01 FY -0.16 FZ 0
4163 FX 0.07 FY -0.42 FZ 0.01
4164 FX 0.01 FY -0.49 FZ 0.08
4164 FX 0.03 FY -0.17 FZ 0.01
4164 FX 0.11 FY -0.69 FZ 0
4167 FX 0.01 FY -0.43 FZ 0.04
4168 FX 0.09 FY -1.17 FZ 0.07
4165 FX 0.01 FY -0.41 FZ 0.02
*SISTEMA 18
4170 FX 0.13 FY -0.77 FZ 0.03
4169 FX 0 FY -0.63 FZ 0.13
4171 FX 0.1 FY -0.51 FZ 0.04
4173 FX 0.02 FY -0.61 FZ 0.1
4172 FX 0.03 FY -0.53 FZ 0
4174 FX 0.04 FY -1.02 FZ 0.15
4176 FX 0.73 FY -5.35 FZ 0.16
4175 FX 0.11 FY -3.2 FZ 0.4
4177 FX 0.1 FY -0.97 FZ 0.09
4178 FX 0.01 FY -0.56 FZ 0.02
1132 FX 0.01 FY -0.68 FZ 0
4180 FX 0.05 FY -0.93 FZ 0.05
4179 FX 0.09 FY -0.63 FZ 0.19
4181 FX 0.1 FY -1.17 FZ 0.06
4182 FX 0.1 FY -0.49 FZ 0.02
4183 FX 0.01 FY -0.97 FZ 0
4184 FX 0.09 FY -0.64 FZ 0.02
1188 FX 0.04 FY -0.39 FZ 0.01
1185 FX 0.02 FY -0.63 FZ 0.05
1185 FX 0 FY -0.6 FZ 0
# ... 23 like lines cut
*SISTEMA 19
JOINT LOAD
1105 FY -0.53
1133 FX 0.01 FY -0.38 FZ 0.01
1186 FX 0.01 FY -0.35
1234 FY -0.41
1273 FY 0.4 FZ 0.01
1275 FX 0.08 FY -0.61 FZ 0.17
1188 FX 0.03 FY -0.62 FZ 0.01
1236 FY -0.69
1276 FY -0.72
MEMBER LOAD
1202 TO 1205 4222 UNI GY -1.8
1192 1196 1221 TO 1224 1258 1259 1276 1281 1289 4216 4224 TO 4226 -
4240 TO 4242 UNI GY -3.3
1190 1191 1195 1233 TO 1235 1246 1247 1274 1275 1279 1280 1288 4230 TO 4232 -
4235 TO 4237 4244 UNI GY -3
1193 1194 1268 1269 1277 1278 1282 1290 4213 4217 4245 4246 UNI GY -3.6
1163 1164 1441 1442 4215 4220 4248 4249 4278 4285 UNI GY -0.192
1088 1091 1096 1137 1147 1364 1369 1372 1394 1399 1415 1418 1425 4227 4228 -
4238 4239 4243 4264 4265 4270 4273 UNI GY -0.228
1144 1422 UNI GY -0.228 0 0.369001
1144 1422 UNI GY -0.228 0.869001 1.299
1144 1422 UNI GY -0.228 0.369001 0.869001
1113 1391 UNI GY -0.228 0 0.385999
1110 1388 UNI GY -0.228 0.5 0.914001
1110 1388 UNI GY -0.228 0 0.5
4229 UNI GY -0.228 3.7 4.3
4229 UNI GY -0.228 0 3.7
1116 UNI GY -0.228 0 0.700001
4233 UNI GY -0.228 0 0.999998
1121 UNI GY -0.228 0 1.229
1113 1391 UNI GY -0.228 0.385999 1.257
4234 UNI GY -0.228 0 0.140005
4233 UNI GY -0.228 0.999998 1.45999
1140 UNI GY -0.228 3.3 5
1140 UNI GY -0.228 0 3.3
JOINT LOAD
1082 1121 FY -5
LOAD 16 LOADTYPE None  TITLE PRUEBA HIDRAULICA (DT)
*SISTEMA 05
JOINT LOAD
1041 FX 0.93 FY -6.61 FZ 0.16
1092 FX 0.2 FY -6.04 FZ 0.11
1131 FX 0.11 FY -0.7 FZ 0.07
1147 FY -6.55
1171 FX 1.02 FY -6.95 FZ 0.38
1184 FX 1.1 FY -0.25 FZ 0.08
1232 FX 0.03 FY -6.26 FZ 0.4
1271 FX 0.05 FY -3.45 FZ 0.96
*SISTEMA 07
JOINT LOAD
1059 FX 1.35 FY -4.72 FZ 0.4
1093 FY -4.39
1134 FX 0.02 FY -0.76 FZ 0.23
1148 FX 0.03 FY -6.63 FZ 0.11
1170 FX 0.01 FY -5.98 FZ 0.05
1187 FX 0.03 FY -1.04 FZ 0.04
1235 FX 0.05 FY -5.68 FZ 0.04
1274 FX 0.14 FY -5.65 FZ 0.06
*SISTEMA 17
1261 1278 FX 0.11 FY -0.67 FZ 0.15
4162 FX 0.04 FY -0.45 FZ 0.05
4162 FX 0.1 FY 0.39 FZ 0.02
4162 FX 0.07 FY -0.17 FZ 0
4163 FX 0.08 FY -0.33 FZ 0.04
4163 FX 0.11 FY -0.5 FZ 0.08
4163 FX 0.08 FY -0.62 FZ 0.15
4164 FX 7.57 FY 3.41 FZ 0.83
4164 FX 0.33 FY 1.05 FZ 0.01
4164 FX 0.2 FY -0.76 FZ 0.14
4167 FX 0.24 FY -0.84 FZ 4.57
4168 FX 0.15 FY -0.74 FZ 0.15
4165 FX 0.03 FY -0.11 FZ 5.63
*SISTEMA 18
4170 FX 0.15 FY -0.87 FZ 0.03
4169 FX 0 FY -0.9 FZ 0.18
4171 FX 0.1 FY -0.5 FZ 0.03
4173 FX 0.02 FY -0.87 FZ 0.14
4172 FX 0.03 FY -0.52 FZ 0
4174 FX 0.05 FY -1.14 FZ 0.18
4176 FX 0.95 FY -6.74 FZ 0.19
4175 FX 0.16 FY -3.56 FZ 0.55
4177 FX 0.1 FY -0.96 FZ 0.09
4178 FX 0.01 FY -0.79 FZ 0.03
1132 FX 0.01 FY -0.67 FZ 0
4180 FX 0.06 FY -1.09 FZ 0.08
4179 FX 0.14 FY -0.88 FZ 0.26
4181 FX 0.13 FY -1.49 FZ 0.07
4182 FX 0.14 FY -0.72 FZ 0.02
4183 FX 0.01 FY -1.26 FZ 0
4184 FX 0.13 FY -0.96 FZ 0.03
1188 FX 0.05 FY -0.55 FZ 0.01
1185 FX 0.02 FY -0.62 FZ 0.05
1185 FX 0 FY -0.59 FZ 0
# ... 23 like lines cut
*SISTEMA 19
JOINT LOAD
1105 FY -0.67
1133 FX 0.01 FY -0.47 FZ 0.02
1186 FX 0.01 FY -0.44
1234 FY -0.52
1273 FY -0.51
1275 FX 0.04 FY -0.81 FZ 0.02
1188 FX 0.04 FY -0.81 FZ 0.02
1236 FY -0.88
1276 FX 0.01 FY -0.92
MEMBER LOAD
1202 TO 1205 4222 UNI GY -3
1192 1196 1221 TO 1224 1258 1259 1276 1281 1289 4216 4224 TO 4226 -
4240 TO 4242 UNI GY -5.5
1190 1191 1195 1233 TO 1235 1246 1247 1274 1275 1279 1280 1288 4230 TO 4232 -
4235 TO 4237 4244 UNI GY -5
1193 1194 1268 1269 1277 1278 1282 1290 4213 4217 4245 4246 UNI GY -6
1206 UNI GY -1.5
1187 1189 1199 1201 1283 1286 UNI GY -2.75
1185 1186 1197 1198 1284 1285 UNI GY -2.5
1188 1200 1287 UNI GY -3
1163 TO 1165 1441 TO 1443 4215 4220 4248 4249 4278 4285 UNI GY -0.32
1088 1091 1092 1096 1137 1147 1364 1369 1370 1372 1394 1395 1399 1415 1418 -
1419 1425 4227 4228 4238 4239 4243 4264 4265 4270 4273 UNI GY -0.38
1144 1422 UNI GY -0.38 0 0.369001
1144 1422 UNI GY -0.38 0.869001 1.299
1144 1422 UNI GY -0.38 0.369001 0.869001
1113 1391 UNI GY -0.38 0 0.385999
1110 1388 UNI GY -0.38 0.5 0.914001
1110 1388 UNI GY -0.38 0 0.5
1117 UNI GY -0.38 4.4 5
4229 UNI GY -0.38 3.7 4.3
1117 UNI GY -0.38 0 4.4
4229 UNI GY -0.38 0 3.7
1116 UNI GY -0.38 0 0.700001
4233 UNI GY -0.38 0 0.999998
1121 UNI GY -0.38 0 1.229
1113 1391 UNI GY -0.38 0.385999 1.257
4234 UNI GY -0.38 0 0.140005
4233 UNI GY -0.38 0.999998 1.45999
1140 1141 UNI GY -0.38 3.3 5
1140 1141 UNI GY -0.38 0 3.3
JOINT LOAD
1082 1121 FY -8
LOAD 17 LOADTYPE None  TITLE BANDEJAS E INSTRUMENTOS EN OPERACION
ONEWAY LOAD
_PISO-BANDEJAS ONE -1.45 GY
_PISO_BANDEJAS_2 ONE -1.45 GY
MEMBER LOAD
1012 TO 1017 UNI GY -0.5
1296 1298 1300 1302 1304 1306 UNI GY -1.5
LOAD 18 LOADTYPE None  TITLE BANDEJAS E INSTRUMENTOS VACIOS
ONEWAY LOAD
_PISO-BANDEJAS ONE -0.5 GY
_PISO_BANDEJAS_2 ONE -0.5 GY
MEMBER LOAD
1012 TO 1017 UNI GY -0.12
1296 1298 1300 1302 1304 1306 UNI GY -0.4
LOAD 19 LOADTYPE None  TITLE SOBRECARGA (L)
JOINT LOAD
1082 1121 FY -20.6
LOAD 20 LOADTYPE Fluids  TITLE FLOTACION (FL)
MEMBER LOAD
4000 TO 4011 4024 TO 4083 UNI GY 9.9
4012 TO 4023 UNI GY 2.4
LOAD 10 LOADTYPE None  TITLE CARGA MUERTA - VACIO
REPEAT LOAD
13 1.0 15 1.0 18 1.0 
LOAD 11 LOADTYPE None  TITLE CARGA MUERTA - OPERACIONAL
REPEAT LOAD
13 1.0 14 1.0 17 1.0 
LOAD 12 LOADTYPE None  TITLE CARGA MUERTA - PRUEBA
REPEAT LOAD
13 1.0 17 1.0 
LOAD 31 LOADTYPE None  TITLE VIENTO TRANSVERSAL +X (WX+)
WIND LOAD X 1.8 TYPE 1 OPEN LIST _WX
WIND LOAD X 2.2 TYPE 1 OPEN LIST _WX_H
JOINT LOAD
1018 1019 1021 1023 1025 1029 1031 1033 1035 1037 FX 0.6
1120 1122 TO 1125 1127 1135 1136 1138 1140 1142 1146 1172 1173 1176 1178 -
1180 1189 1190 1192 1194 1196 1200 FX 0.87
1260 1261 1263 1265 1267 1277 1278 1280 1282 1284 FX 1.27
1081 1083 TO 1086 1088 1094 1095 1097 1099 1101 1221 1222 1224 1226 1228 -
1237 1238 1240 1242 1244 FX 1.1
MEMBER LOAD
1012 TO 1017 UNI GX 0.68
JOINT LOAD
1044 1045 1048 1049 1053 1054 1057 1058 1064 1065 1071 1072 1090 1091 1103 -
1104 1160 1162 1166 1167 1203 1204 1210 1212 1230 1231 1246 TO 1259 1263 -
1265 1269 1270 1280 1282 1286 1287 FX 0.75
1027 1028 1039 1040 FX 0.37
1106 TO 1109 1111 TO 1118 1129 1130 1144 1145 1152 1154 TO 1156 1163 1164 -
1168 1169 1182 1183 1198 1199 1201 1202 1205 1206 1213 1214 1218 -
1220 FX 0.62
MEMBER LOAD
1306 UNI GX 0.5
1304 UNI GX 1
1302 UNI GX 1.4
1300 UNI GX 1.74
1298 UNI GX 1.6
1296 UNI GX 1.36
JOINT LOAD
1082 1121 FX 0.6
1082 1121 FX 0.83
LOAD 32 LOADTYPE None  TITLE VIENTO TRANSVERSAL -X (WX-)
REPEAT LOAD
31 -1.0 
LOAD 33 LOADTYPE None  TITLE VIENTO LONGITUDINAL +Z (WZ+)
JOINT LOAD
1018 1019 1021 1023 1025 1029 1031 1033 1035 1037 1080 1081 1084 1086 1088 -
1094 1095 1097 1099 1101 1120 1123 1125 1127 1135 1136 1138 1140 1142 1146 -
1172 1173 1176 1178 1180 1189 1190 1192 1194 1196 1200 1221 1222 1224 1226 -
1228 1237 1238 1240 1242 1244 1260 1261 1263 1265 1267 1277 1278 1280 1282 -
1284 FZ 0.63
WIND LOAD Z 1.8 TYPE 1 OPEN LIST _WZ
WIND LOAD Z 2.2 TYPE 1 OPEN LIST _WZ_H
JOINT LOAD
1082 1121 FZ 0.6
1082 1121 FZ 0.43
LOAD 34 LOADTYPE None  TITLE VIENTO LONGITUDINAL -Z (WZ-)
REPEAT LOAD
33 -1.0 
LOAD 61 LOADTYPE None  TITLE CARGA TERMICA (+FF)
*SISTEMA 05
JOINT LOAD
1041 FX 0.41 FY 1.77 FZ 0.32
1092 FX 0.3 FY 1.02 FZ 0.63
1131 FX 0.15
1147 FY 1.38
1171 FX 0.19 FY 1.25 FZ 0.32
1184 FX 0.22
1232 FX 0.01 FY 1.36 FZ 0.41
1271 FX 0.82 FY 0.48 FZ 1.18
*SISTEMA 07
JOINT LOAD
1059 FX 0.35 FY 1.23 FZ 0.13
1093 FY 0.16 FZ 4.28
1134 FX 0.19 FY 0.53 FZ 0.17
1148 FX 0.27 FY 0.9 FZ 0.02
1170 FX 0.1 FY 0.88 FZ 0.26
1187 FX 2.02 FY 0.38 FZ 0.12
1235 FX 0.01 FY 0.76 FZ 0.23
1274 FX 5.76 FY 1.36 FZ 3.69
1110 FX 2.18 FY -1 FZ 0.29
*SISTEMA 17
1233 FX 1.99 FY 6.61 FZ 14.12
1272 FX 0.53 FY -0.54 FZ 1.5
*SISTEMA 18
JOINT LOAD
1132 FX 0.38 FY 1.29 FZ 0.52
1185 FX 0.05 FY -0.16 FZ 0.02
1233 FX 0.15 FY 0.05 FZ 0.01
1272 FX 0.01 FY 0.02
*SISTEMA 19
JOINT LOAD
1105 FY 0.33
1133 FX 0.06 FY 0.07 FZ 0.02
1186 FX 0.01 FY -0.01
1234 FX 0.01 FY 0.04 FZ 0.02
1273 FX 0.03 FY -0.12 FZ 0.03
1275 FX 0.04 FY 0.6 FZ 0.05
1188 FX 0.04 FY 0.06 FZ 0.05
1236 FX 0.06 FY 0.13 FZ 0.13
1276 FX 0.11 FY -0.26 FZ 0.08
MEMBER LOAD
1221 1222 1258 1259 4216 4240 UNI GZ 0.44
1202 TO 1205 4222 UNI GZ 0.24
1233 1234 1246 1247 4244 UNI GZ 0.4
1268 1269 4217 4245 UNI GZ 0.48
JOINT LOAD
1082 1121 FX 0.66 FZ 0.66
MEMBER LOAD
1192 1196 1223 1224 1276 1281 1289 4224 TO 4226 4241 4242 UNI GZ 0.22
1190 1191 1195 1235 1274 1275 1279 1280 1288 4201 4202 4214 4230 TO 4232 -
4235 TO 4237 UNI GZ 0.2
1193 1194 1277 1278 1282 1290 4213 4246 UNI GZ 0.24
LOAD 62 LOADTYPE None  TITLE CARGA TERMICA (-FF)
REPEAT LOAD
61 -1.0 
*******************************************************************************
*La carga AF esta incluida dentro de los pesos propios DE, DO Y DT (10, 11 y 12)
LOAD 101 1.4DS+1.4DO
REPEAT LOAD
11 1.4 
LOAD 102 1.4DS+1.4DT
REPEAT LOAD
12 1.4 
LOAD 103 1.2DS+1.2DO+0.8(WX+)+1.2AF
REPEAT LOAD
11 1.2 31 0.8 
LOAD 104 1.2DS+1.2DO+0.8(WX-)+1.2AF
REPEAT LOAD
11 1.2 32 0.8 
LOAD 105 1.2DS+1.2DO+0.8(WZ+)+1.2AF
REPEAT LOAD
11 1.2 33 0.8 
LOAD 106 1.2DS+1.2DO+0.8(WZ-)+1.2AF
REPEAT LOAD
11 1.2 34 0.8 
LOAD 107 1.2DS+1.2DO+1.6(WX+)+1.2AF
REPEAT LOAD
11 1.2 31 1.5 
LOAD 108 1.2DS+1.2DO+1.6(WX-)+1.2AF
REPEAT LOAD
11 1.2 32 1.6 
LOAD 109 1.2DS+1.2DO+1.6(WZ+)+1.2AF
REPEAT LOAD
11 1.2 33 1.6 
LOAD 110 1.2DS+1.2DO+1.6(WZ-)+1.2AF
REPEAT LOAD
11 1.2 34 1.6 
LOAD 111 1.4DS+1.4DO+1.4FF(+)+1.4AF
REPEAT LOAD
11 1.4 61 1.4 
LOAD 112 1.4DS+1.4DO+1.4FF(-)+1.4AF
REPEAT LOAD
11 1.4 62 1.4 
LOAD 113 1.2DS+1.2DO+1.2FF(+)+1.2AF
REPEAT LOAD
11 1.2 61 1.2 
LOAD 114 1.2DS+1.2DO+1.2FF(-)+1.2AF
REPEAT LOAD
11 1.2 62 1.2 
LOAD 115 0.9DS+0.9DE+FL
REPEAT LOAD
10 0.9 20 1.0 
LOAD 116 0.9DS+0.9DE+1.6(WX+)+1.2AF+FL
REPEAT LOAD
10 0.9 31 1.6 20 1.0 
LOAD 117 0.9DS+0.9DE+1.6(WX-)+1.2AF+FL
REPEAT LOAD
10 0.9 32 1.6 20 1.0 
LOAD 118 0.9DS+0.9DE+1.6(WZ+)+1.2AF+FL
REPEAT LOAD
10 0.9 33 1.6 20 1.0 
LOAD 119 0.9DS+0.9DE+1.6(WZ-)+1.2AF+FL
REPEAT LOAD
10 0.9 34 1.6 20 1.0 
LOAD 120 1.2DS+1.2DT+1.6(WX+)+1.2AF
REPEAT LOAD
12 1.2 31 1.6 
LOAD 121 1.2DS+1.2DT+1.6(WX-)+1.2AF
REPEAT LOAD
12 1.2 32 1.6 
LOAD 122 1.2DS+1.2DT+1.6(WZ+)+1.2AF
REPEAT LOAD
12 1.2 33 1.6 
LOAD 123 1.2DS+1.2DT+1.6(WZ-)+1.2AF
REPEAT LOAD
12 1.2 34 1.6 
*******************************************************************************
LOAD 201 1DS+1DO+1AF
REPEAT LOAD
11 1.0 
LOAD 202 1DS+1DO+1FF(+)+1AF
REPEAT LOAD
11 1.0 61 1.0 
LOAD 203 1DS+1DO+1FF(-)+1AF
REPEAT LOAD
11 1.0 62 1.0 
LOAD 204 1DS+1DO+1(WX+)+1AF
REPEAT LOAD
11 1.0 31 1.0 
LOAD 205 1DS+1DO+1(WX-)+1AF
REPEAT LOAD
11 1.0 32 1.0 
LOAD 206 1DS+1DO+1(WZ+)+1AF
REPEAT LOAD
11 1.0 33 1.0 
LOAD 207 1DS+1DO+1(WZ-)+1AF
REPEAT LOAD
11 1.0 34 1.0 
LOAD 208 1DS+1DO+0.7(WX+)+1AF
REPEAT LOAD
11 1.0 31 0.7 
LOAD 209 1DS+1DO+0.7(WX-)+1AF
REPEAT LOAD
11 1.0 32 0.7 
LOAD 210 1DS+1DO+0.7(WZ+)+1AF
REPEAT LOAD
11 1.0 33 0.7 
LOAD 211 1DS+1DO+0.7(WZ-)+1AF
REPEAT LOAD
11 1.0 34 0.7 
LOAD 212 1DS+1DO+0.7FF(+)+1AF
REPEAT LOAD
11 1.0 61 0.7 
LOAD 213 1DS+1DO+0.7FF(-)+1AF
REPEAT LOAD
11 1.0 62 0.7 
LOAD 214 1DS+1DE+FL
REPEAT LOAD
10 1.0 20 1.0 
LOAD 10001 LOADTYPE None  TITLE LOAD CASE	10001
JOINT LOAD
4174 FX 10
LOAD 10002 LOADTYPE None  TITLE LOAD CASE	10002
JOINT LOAD
4175 FX 10
LOAD 10003 LOADTYPE None  TITLE LOAD CASE	10003
JOINT LOAD
4176 FX 10
LOAD 10004 LOADTYPE None  TITLE LOAD CASE	10004
JOINT LOAD
4179 FX 10
LOAD 10005 LOADTYPE None  TITLE LOAD CASE	10005
JOINT LOAD
4180 FX 10
LOAD 10006 LOADTYPE None  TITLE LOAD CASE	10006
JOINT LOAD
4181 FX 10
LOAD 10007 LOADTYPE None  TITLE LOAD CASE	10007
JOINT LOAD
4165 FX 10
LOAD 10008 LOADTYPE None  TITLE LOAD CASE	10008
JOINT LOAD
4167 FX 10
LOAD 10009 LOADTYPE None  TITLE LOAD CASE	10009
JOINT LOAD
4164 FX 10
LOAD 10010 LOADTYPE None  TITLE LOAD CASE	10010
JOINT LOAD
4174 FZ 10
LOAD 10011 LOADTYPE None  TITLE LOAD CASE	10011
JOINT LOAD
4175 FZ 10
LOAD 10012 LOADTYPE None  TITLE LOAD CASE	10012
JOINT LOAD
4176 FZ 10
LOAD 10013 LOADTYPE None  TITLE LOAD CASE	10013
JOINT LOAD
4179 FZ 10
LOAD 10014 LOADTYPE None  TITLE LOAD CASE	10014
JOINT LOAD
4180 FZ 10
LOAD 10015 LOADTYPE None  TITLE LOAD CASE	10015
JOINT LOAD
4181 FZ 10
LOAD 10016 LOADTYPE None  TITLE LOAD CASE	10016
JOINT LOAD
4165 FZ 10
LOAD 10017 LOADTYPE None  TITLE LOAD CASE	10017
JOINT LOAD
4167 FZ 10
LOAD 10018 LOADTYPE None  TITLE LOAD CASE	10018
JOINT LOAD
4164 FZ 10
PDELTA 20 ANALYSIS PRINT STATICS LOAD
DEFINE ENVELOPE
*ENVOLVENTES EST MET
101 TO 123 ENVELOPE 1 TYPE STRENGTH
201 TO 214 ENVELOPE 2 TYPE SERVICEABILITY
10001 TO 10018 ENVELOPE 3
*ENVOLVENTES EST H?
END DEFINE ENVELOPE
*******************************************************************************
LOAD LIST ENV 1 2
PARAMETER 1
CODE AISC UNIFIED 2016
CAN 1 MEMB 1000 TO 1011 1030 TO 1039 1075 TO 1085 1099 TO 1109 1124 TO 1134 -
1149 TO 1158 1171 TO 1173 1175 1177 TO 1180 1182 TO 1184 1296 1298 1300 -
1302 1304 1306 TO 1317 1354 TO 1363 1377 TO 1386 1403 TO 1412 1427 TO 1436 -
1449 TO 1451 1453 1455 TO 1458 1460 TO 1462 4196 4197 4199 4200 4204 4205 -
4207 4208 4211 4212
TMAIN 300 MEMB 1000 TO 1173 1175 1177 TO 1451 1453 1455 TO 1472 4195 TO 4197 -
4199 TO 4205 4207 4208 4211 TO 4278 4280 TO 4285
MAIN 200 MEMB 1000 TO 1039 1041 1044 1046 TO 1050 1053 TO 1057 1060 TO 1065 -
1069 1071 TO 1074 1076 TO 1173 1175 1177 TO 1296 1298 1300 1302 1304 1306 -
1307 TO 1318 1320 1323 1325 TO 1328 1331 TO 1335 1338 TO 1345 1349 -
1351 TO 1451 1453 1455 TO 1472 4195 TO 4197 4199 TO 4205 4207 4208 -
4211 TO 4275 4277 4278 4280 TO 4285
MAIN 160 MEMB 1040 1042 1043 1045 1051 1052 1058 1059 1066 TO 1068 1070 1181 -
1297 1299 1301 1303 1305 1319 1321 1322 1324 1329 1330 1336 1337 -
1346 TO 1348 1350 1459 1463 1465 TO 1467 4195 4203
RATIO 1 MEMB 1000 TO 1173 1175 1177 TO 1451 1453 1455 TO 1472 4195 TO 4197 -
4199 TO 4205 4207 4208 4211 TO 4278 4280 TO 4285
CB 1 MEMB 1000 TO 1173 1175 1177 TO 1451 1453 1455 TO 1472 4195 TO 4197 4199 -
4200 TO 4205 4207 4208 4211 TO 4278 4280 TO 4285
*COLUMNAS
DFF 100 MEMB 1000 TO 1011 1030 TO 1039 1075 TO 1085 1099 TO 1109 -
1124 TO 1134 1149 TO 1158 1171 TO 1173 1175 1177 TO 1180 1307 TO 1317 1354 -
1355 TO 1363 1377 TO 1386 1403 TO 1412 1427 TO 1436 1449 TO 1451 1453 1455 -
1456 TO 1458 4196 4204 4211 4212
DJ1 1001 MEMB 1000 1030 TO 1039
DJ2 1028 MEMB 1000 1030 TO 1039
DJ1 1000 MEMB 1001 1307 TO 1317
DJ2 1040 MEMB 1001 1307 TO 1317
DJ1 1003 MEMB 1002 1075 TO 1085
DJ2 1091 MEMB 1002 1075 TO 1085
DJ1 1002 MEMB 1003 1354 TO 1363
DJ2 1104 MEMB 1003 1354 TO 1363
DJ1 1005 MEMB 1004 1099 TO 1109
DJ2 1130 MEMB 1004 1099 TO 1109
DJ1 1004 MEMB 1005 1377 TO 1386
DJ2 1145 MEMB 1005 1377 TO 1386
DJ1 1007 MEMB 1006 1124 TO 1134
DJ2 1183 MEMB 1006 1124 TO 1134
DJ1 1006 MEMB 1007 1403 TO 1412
DJ2 1199 MEMB 1007 1403 TO 1412
DJ1 1009 MEMB 1008 1149 TO 1158
DJ2 1231 MEMB 1008 1149 TO 1158
DJ1 1008 MEMB 1009 1427 TO 1436
DJ2 1247 MEMB 1009 1427 TO 1436
DJ1 1011 MEMB 1010 1171 TO 1173 1175 1177 TO 1180 4196 4211
DJ2 1270 MEMB 1010 1171 TO 1173 1175 1177 TO 1180 4196 4211
DJ1 1010 MEMB 1011 1449 TO 1451 1453 1455 TO 1458 4204 4212
DJ2 1287 MEMB 1011 1449 TO 1451 1453 1455 TO 1458 4204 4212
UNB 6.92 MEMB 1000 TO 1011 1030 TO 1039 1075 TO 1085 1099 TO 1109 -
1124 TO 1134 1149 TO 1158 1171 TO 1173 1175 1177 TO 1180 1307 TO 1317 1354 -
1355 TO 1363 1377 TO 1386 1403 TO 1412 1427 TO 1436 1449 TO 1451 1453 1455 -
1456 TO 1458 4196 4204 4211 4212
UNT 6.92 MEMB 1000 TO 1011 1030 TO 1039 1075 TO 1085 1099 TO 1109 -
1124 TO 1134 1149 TO 1158 1171 TO 1173 1175 1177 TO 1180 1307 TO 1317 1354 -
1355 TO 1363 1377 TO 1386 1403 TO 1412 1427 TO 1436 1449 TO 1451 1453 1455 -
1456 TO 1458 4196 4204 4211 4212
UNB 5.42 MEMB 1291 TO 1295
UNT 5.42 MEMB 1291 TO 1295
KX 1 MEMB 1000 TO 1011 1030 TO 1039 1075 TO 1085 1099 TO 1109 1124 TO 1134 -
1149 TO 1158 1171 TO 1173 1175 1177 TO 1180 1307 TO 1317 1354 TO 1363 1377 -
1378 TO 1386 1403 TO 1412 1427 TO 1436 1449 TO 1451 1453 1455 TO 1458 4196 -
4204 4211 4212
KZ 1.8 MEMB 1000 TO 1011
LY 1.72 MEMB 1000 TO 1011 1030 1031 1075 TO 1077 1099 TO 1101 1124 TO 1126 -
1149 1150 1171 1172 1307 TO 1309 1354 1355 1377 1378 1403 1404 1427 1428 -
1449 1450
KZ 2.5 MEMB 1030 1075 1099 1124 1149 1171 1307 1308 1354 1377 1403 1427 1449
KZ 2 MEMB 1031 1032 1076 TO 1078 1100 TO 1102 1125 TO 1127 1150 1151 1172 -
1173 1309 1310 1355 1356 1378 1379 1404 1405 1428 1429 1450 1451
LY 1.2 MEMB 1032 1033 1078 1079 1102 1103 1127 1128 1151 1152 1173 1310 1311 -
1356 1357 1379 1380 1405 1406 1429 1430 1451 4196 4204
KZ 1.9 MEMB 1033 1034 1079 1080 1103 1104 1128 1129 1152 1153 1175 1311 1312 -
1357 1358 1380 1381 1406 1407 1430 1431 1453 4196 4204
LY 1.2 MEMB 1034 1035 1080 1081 1104 1105 1129 1130 1153 1154 1175 1312 1313 -
1358 1359 1381 1382 1407 1408 1431 1432 1453 4211 4212
KZ 1.85 MEMB 1035 1036 1081 1082 1105 1106 1130 1131 1154 1155 1177 1313 -
1314 1359 1360 1382 1383 1408 1409 1432 1433 1455 4211 4212
LY 1.2 MEMB 1036 1037 1082 1083 1106 1107 1131 1132 1155 1156 1177 1178 1314 -
1315 1360 1361 1383 1384 1409 1410 1433 1434 1455 1456
KZ 1.9 MEMB 1037 1038 1083 1084 1107 1108 1132 1133 1156 1157 1178 1179 1315 -
1316 1361 1362 1384 1385 1410 1411 1434 1435 1456 1457
KY 3 MEMB 1038 1084 1108 1133 1157 1179 1316 1362 1385 1411 1435 1457
KZ 1.9 MEMB 1039 1085 1109 1134 1158 1180 1317 1363 1386 1412 1436 1458
KY 2.8 MEMB 1039 1085 1109 1134 1158 1180 1317 1363 1386 1412 1436 1458
*VIGAS LONGITUDINALES
DFF 240 MEMB 1041 1044 1046 TO 1050 1053 TO 1057 1060 TO 1065 1069 -
1071 TO 1074 1086 TO 1098 1110 TO 1123 1135 TO 1148 1159 TO 1170 1318 1320 -
1323 1325 TO 1328 1331 TO 1335 1338 TO 1345 1349 1351 TO 1353 1364 TO 1376 -
1387 TO 1402 1413 TO 1426 1437 TO 1448 4215 4220 4221 4223 4227 TO 4229 -
4233 4234 4238 4239 4243 4248 4249 4264 4265 4270 4273 4278 4285
DJ1 1027 MEMB 1046 1053 1060 1071
DJ2 1090 MEMB 1046 1053 1060 1071
DJ1 1039 MEMB 1325 1331 1338 1351
DJ2 1103 MEMB 1325 1331 1338 1351
DJ1 1090 MEMB 1086 1089 1094 1097
DJ2 1129 MEMB 1086 1089 1094 1097
DJ1 1103 MEMB 1365 1367 1373 1375
DJ2 1144 MEMB 1365 1367 1373 1375
DJ1 1129 MEMB 1112 1115 1120 1123
DJ2 1182 MEMB 1112 1115 1120 1123
DJ1 1144 MEMB 1390 1393 1398 1401
DJ2 1198 MEMB 1390 1393 1398 1401
DJ1 1182 MEMB 1135 1138 1143 1146
DJ2 1230 MEMB 1135 1138 1143 1146
DJ1 1198 MEMB 1413 1416 1421 1424
DJ2 1246 MEMB 1413 1416 1421 1424
DJ1 1230 MEMB 1159 1161 1167 1169
DJ2 1269 MEMB 1159 1161 1167 1169
DJ1 1246 MEMB 1437 1439 1445 1447
DJ2 1286 MEMB 1437 1439 1445 1447
# ... 50 like lines cut
LX 6 MEMB 1046 1047 1050 1053 1054 1057 1060 1064 1071 1072 1074 -
1159 TO 1162 1167 TO 1170 1325 1326 1331 1332 1335 1338 1340 1344 1351 1352 -
1437 TO 1440 1445 TO 1448
LY 6 MEMB 1046 1047 1050 1053 1054 1057 1060 1064 1071 1072 1074 -
1159 TO 1162 1167 TO 1170 1325 1326 1331 1332 1335 1338 1340 1344 1351 1352 -
1437 TO 1440 1445 TO 1448
LZ 6 MEMB 1046 1047 1050 1053 1054 1057 1060 1064 1071 1072 1074 -
1159 TO 1162 1167 TO 1170 1325 1326 1331 1332 1335 1338 1340 1344 1351 1352 -
1437 TO 1440 1445 TO 1448
LX 5 MEMB 1086 1087 1089 1090 1094 1095 1097 1098 1111 1112 1114 1115 1119 -
1120 1122 1123 1135 1136 1138 1139 1143 1145 1146 1148 1365 TO 1368 1373 -
1374 TO 1376 1389 1390 1392 1393 1397 1398 1400 1401 1413 1414 1416 1417 -
1421 1423 1424 1426
LY 5 MEMB 1086 1087 1089 1090 1094 1095 1097 1098 1111 1112 1114 1115 1119 -
1120 1122 1123 1135 1136 1138 1139 1143 1145 1146 1148 1365 TO 1368 1373 -
1374 TO 1376 1389 1390 1392 1393 1397 1398 1400 1401 1413 1414 1416 1417 -
1421 1423 1424 1426
LZ 5 MEMB 1086 1087 1089 1090 1094 1095 1097 1098 1111 1112 1114 1115 1119 -
1120 1122 1123 1135 1136 1138 1139 1143 1145 1146 1148 1365 TO 1368 1373 -
1374 TO 1376 1389 1390 1392 1393 1397 1398 1400 1401 1413 1414 1416 1417 -
1421 1423 1424 1426
UNB 5 MEMB 1086 TO 1098 1110 TO 1123 1135 TO 1148 1364 TO 1376 1387 TO 1402 -
1413 TO 1426 4227 TO 4229 4233 4234 4238 4239 4243 4264 4265 4270 4273
UNT 5 MEMB 1086 TO 1098 1110 TO 1123 1135 TO 1148 1364 TO 1376 1387 TO 1402 -
1413 TO 1426 4227 TO 4229 4233 4234 4238 4239 4243 4264 4265 4270 4273
UNB 6 MEMB 1041 1044 1046 TO 1050 1053 TO 1057 1060 TO 1065 1069 -
1071 TO 1074 1159 TO 1170 1318 1320 1323 1325 TO 1328 1331 TO 1335 -
1338 TO 1345 1349 1351 TO 1353 1437 TO 1448 4215 4220 4221 4223 4248 4249 -
4278 4285
UNT 6 MEMB 1041 1044 1046 TO 1050 1053 TO 1057 1060 TO 1065 1069 -
1071 TO 1074 1159 TO 1170 1318 1320 1323 1325 TO 1328 1331 TO 1335 -
1338 TO 1345 1349 1351 TO 1353 1437 TO 1448 4215 4220 4221 4223 4248 4249 -
4278 4285
*VIGAS TRANSVERSALES
DFF 240 MEMB 1185 TO 1208 1210 1211 1213 TO 1217 1219 TO 1290 4201 4202 4213 -
4214 4216 4217 4222 4224 TO 4226 4230 TO 4232 4235 TO 4237 4240 TO 4242 -
4244 TO 4246
DJ1 1101 MEMB 1189 1201 1283
DJ2 1088 MEMB 1189 1201 1283
DJ1 1142 MEMB 1185 1197 1284
DJ2 1127 MEMB 1185 1197 1284
DJ1 1196 MEMB 1186 1198 1285
DJ2 1180 MEMB 1186 1198 1285
DJ1 1244 MEMB 1187 1199 1286
DJ2 1228 MEMB 1187 1199 1286
DJ1 1284 MEMB 1188 1200 1287
DJ2 1267 MEMB 1188 1200 1287
DJ1 1192 MEMB 1195 1288 4235 4236
DJ2 1176 MEMB 1195 1288 4235 4236
DJ1 1240 MEMB 1196 1289 4241 4242
DJ2 1224 MEMB 1196 1289 4241 4242
DJ1 1280 MEMB 1194 1278 1290 4213 4246
DJ2 1263 MEMB 1194 1278 1290 4213 4246
DJ1 1140 MEMB 1190 1274 1279 4230
DJ2 1125 MEMB 1190 1274 1279 4230
DJ1 1194 MEMB 1191 1275 1280 4237
DJ2 1178 MEMB 1191 1275 1280 4237
# ... 4 like lines cut
LX 2 MEMB 1185 TO 1208 1210 1211 1213 TO 1217 1219 TO 1287 4201 4202 4213 -
4214 4216 4217 4222 4224 TO 4226 4230 TO 4232 4235 TO 4237 4240 TO 4242 -
4244 TO 4246
LY 2 MEMB 1185 TO 1208 1210 1211 1213 TO 1217 1219 TO 1287 4201 4202 4213 -
4214 4216 4217 4222 4224 TO 4226 4230 TO 4232 4235 TO 4237 4240 TO 4242 -
4244 TO 4246
LZ 2 MEMB 1185 TO 1208 1210 1211 1213 TO 1217 1219 TO 1287 4201 4202 4213 -
4214 4216 4217 4222 4224 TO 4226 4230 TO 4232 4235 TO 4237 4240 TO 4242 -
4244 TO 4246
KX 2 MEMB 1182 1183 1296 1298 1300 1302 1304 1306 1460 1461 1464 1468 4197 -
4199 4205 4207
KY 2 MEMB 1182 1183 1296 1298 1300 1302 1304 1306 1460 1461 1464 1468 4197 -
4199 4205 4207
KZ 2 MEMB 1182 1183 1296 1298 1300 1302 1304 1306 1460 1461 1464 1468 4197 -
4199 4205 4207
*ARRIOSTRAMIENTOS
KZ 0.5 MEMB 1040 1066 1319 1346
***********************************************************************
CHECK CODE MEMB 1000 TO 1173 1175 1177 TO 1451 1453 1455 TO 1472 -
4195 TO 4197 4199 TO 4205 4207 4208 4211 TO 4285
STEEL TAKE OFF LIST 1000 TO 1173 1175 1177 TO 1451 1453 1455 TO 1472 4195 -
4196 TO 4197 4199 TO 4205 4207 4208 4211 TO 4285
PRINT SUPPORT REACTION LIST 1000 TO 1011 1019 TO 1028 1031 TO 1040 -
1042 TO 1049 1051 TO 1058 1065 1067 TO 1072 1081 1083 TO 1091 1095 TO 1104 -
1106 TO 1109 1111 TO 1118 1120 1122 TO 1130 1136 TO 1146 1155 1156 1163 -
1164 1168 1169 1173 1175 TO 1183 1190 TO 1202 1205 1206 1213 1214 -
1222 TO 1231 1238 TO 1259 1261 TO 1270 1278 TO 1287
FINISH
